
  Mrv1827 10162002382D          

 33 39  0  0  0  0            999 V2000
    2.0056    0.9099    0.0000 C   0  0  0  0  0  0  0  0  0  0  0  0
    2.6846    0.4412    0.0000 C   0  0  0  0  0  0  0  0  0  0  0  0
    2.6182   -0.3811    0.0000 C   0  0  0  0  0  0  0  0  0  0  0  0
    1.8728   -0.7347    0.0000 C   0  0  0  0  0  0  0  0  0  0  0  0
    1.1939   -0.2660    0.0000 C   0  0  0  0  0  0  0  0  0  0  0  0
    1.2603    0.5563    0.0000 C   0  0  0  0  0  0  0  0  0  0  0  0
    0.5813    1.0250    0.0000 C   0  0  0  0  0  0  0  0  0  0  0  0
    0.4485   -0.6197    0.0000 C   0  0  0  0  0  0  0  0  0  0  0  0
   -0.2304   -0.1510    0.0000 N   0  0  0  0  0  0  0  0  0  0  0  0
   -0.1640    0.6713    0.0000 N   0  0  0  0  0  0  0  0  0  0  0  0
   -0.9256    0.9886    0.0000 C   0  0  0  0  0  0  0  0  0  0  0  0
   -1.0330   -0.3419    0.0000 C   0  0  0  0  0  0  0  0  0  0  0  0
   -1.4627    0.3624    0.0000 C   0  0  0  0  0  0  0  0  0  0  0  0
   -2.2874    0.3425    0.0000 C   0  0  0  0  0  0  0  0  0  0  0  0
   -1.4282   -1.0661    0.0000 C   0  0  0  0  0  0  0  0  0  0  0  0
   -2.2530   -1.0860    0.0000 C   0  0  0  0  0  0  0  0  0  0  0  0
   -2.6826   -0.3817    0.0000 C   0  0  0  0  0  0  0  0  0  0  0  0
   -2.8541    0.9421    0.0000 N   0  0  0  0  0  0  0  0  0  0  0  0
   -3.4934   -0.2297    0.0000 C   0  0  0  0  0  0  0  0  0  0  0  0
   -3.5994    0.5885    0.0000 C   0  0  0  0  0  0  0  0  0  0  0  0
   -4.3610    0.9058    0.0000 C   0  0  0  0  0  0  0  0  0  0  0  0
   -4.1490   -0.7306    0.0000 C   0  0  0  0  0  0  0  0  0  0  0  0
   -4.9105   -0.4133    0.0000 C   0  0  0  0  0  0  0  0  0  0  0  0
   -5.0165    0.4049    0.0000 C   0  0  0  0  0  0  0  0  0  0  0  0
   -1.1165    1.7912    0.0000 C   0  0  0  0  0  0  0  0  0  0  0  0
   -2.0980    2.8298    0.0000 C   0  0  0  0  0  0  0  0  0  0  0  0
   -1.9070    2.0272    0.0000 C   0  0  0  0  0  0  0  0  0  0  0  0
   -0.5169    2.3579    0.0000 C   0  0  0  0  0  0  0  0  0  0  0  0
   -0.7078    3.1605    0.0000 C   0  0  0  0  0  0  0  0  0  0  0  0
   -1.4984    3.3964    0.0000 C   0  0  0  0  0  0  0  0  0  0  0  0
    0.6478    1.8473    0.0000 O   0  0  0  0  0  0  0  0  0  0  0  0
    0.3821   -1.4420    0.0000 O   0  0  0  0  0  0  0  0  0  0  0  0
   -1.6893    4.1990    0.0000 Cl  0  0  0  0  0  0  0  0  0  0  0  0
  1  2  2  0  0  0  0
  2  3  1  0  0  0  0
  3  4  2  0  0  0  0
  4  5  1  0  0  0  0
  5  6  2  0  0  0  0
  1  6  1  0  0  0  0
  8  9  1  0  0  0  0
  9 10  1  0  0  0  0
  7 10  1  0  0  0  0
  5  8  1  0  0  0  0
  7  6  1  0  0  0  0
 11 13  1  0  0  0  0
 11 10  1  0  0  0  0
  9 12  1  0  0  0  0
 15 16  1  0  0  0  0
 16 17  2  0  0  0  0
 14 17  1  0  0  0  0
 14 13  2  0  0  0  0
 12 15  2  0  0  0  0
 13 12  1  0  0  0  0
 18 20  1  0  0  0  0
 17 19  1  0  0  0  0
 18 14  1  0  0  0  0
 22 23  2  0  0  0  0
 23 24  1  0  0  0  0
 21 24  2  0  0  0  0
 21 20  1  0  0  0  0
 19 22  1  0  0  0  0
 20 19  2  0  0  0  0
 11 25  1  0  0  0  0
 26 27  1  0  0  0  0
 28 29  2  0  0  0  0
 29 30  1  0  0  0  0
 26 30  2  0  0  0  0
 27 25  2  0  0  0  0
 25 28  1  0  0  0  0
  7 31  2  0  0  0  0
  8 32  2  0  0  0  0
 30 33  1  0  0  0  0
M  END
